** written by FreeCAD inp file writer for CalculiX,Abaqus meshes
** highest dimension mesh elements only.

** Nodes
*Node, NSET=Nall
1, 6200, 36.60254037844, 136.6025403784
2, 100, 36.60254037844, 136.6025403784
3, 1320, 36.60254037844, 136.6025403784
4, 2540, 36.60254037844, 136.6025403784
5, 3760, 36.60254037844, 136.6025403784
6, 4980, 36.60254037844, 136.6025403784
7, 7420, 36.60254037844, 136.6025403784
8, 8640, 36.60254037843, 136.6025403784
9, 9860, 36.60254037843, 136.6025403784
10, 11080, 36.60254037843, 136.6025403785
11, 12300, 36.60254037843, 136.6025403785
12, 100, -36.60254037844, 136.6025403784
13, 1320, -36.60254037844, 136.6025403784
14, 2540, -36.60254037845, 136.6025403784
15, 3760, -36.60254037845, 136.6025403784
16, 4980, -36.60254037845, 136.6025403784
17, 6200, -36.60254037845, 136.6025403784
18, 7420, -36.60254037845, 136.6025403784
19, 8640, -36.60254037845, 136.6025403784
20, 9860, -36.60254037845, 136.6025403784
** ... 214880 like lines cut


** Volume elements
*Element, TYPE=C3D10, ELSET=Evolumes
78116, 36402, 12095, 23481, 23480, 132021, 97745, 132022, 132023, 97741, 97746
78117, 14918, 2353, 14919, 16780, 55505, 55507, 55509, 132024, 64894, 132025
78118, 35634, 23606, 36645, 36660, 132026, 132027, 132029, 132030, 132028, 132031
78119, 15000, 16514, 16579, 15001, 132032, 132033, 132035, 55942, 132034, 132036
78120, 16075, 21083, 21059, 21084, 132037, 85449, 132038, 132039, 85388, 85477
78121, 21998, 34032, 21999, 19455, 132040, 132041, 90174, 132043, 132042, 132044
78122, 31571, 31180, 31181, 31616, 131967, 129900, 131908, 132046, 132045, 132047
78123, 15547, 15546, 3562, 23597, 58662, 58777, 58774, 132049, 132048, 98355
78124, 28790, 17263, 36608, 17241, 132050, 132051, 132052, 132053, 67224, 132054
78125, 21998, 34032, 18808, 21999, 132040, 132055, 132056, 90174, 132041, 132057
78126, 16075, 21083, 16074, 21059, 132037, 132058, 61315, 132038, 85449, 132059
78127, 18945, 22150, 34191, 7753, 132060, 132061, 132062, 75276, 90798, 132063
78128, 36294, 35300, 35292, 36264, 132064, 132065, 132067, 132068, 132066, 132069
78129, 30709, 31415, 30708, 35868, 131697, 131954, 127743, 132071, 132070, 132072
78130, 35868, 35855, 35856, 30708, 132073, 132074, 132076, 132072, 132075, 132077
78131, 27819, 8779, 27820, 34192, 116289, 116290, 116292, 132079, 132078, 132080
78132, 22151, 7753, 7754, 18948, 90799, 44522, 90800, 132081, 75280, 75279
78133, 23606, 35638, 36645, 36660, 132082, 132083, 132027, 132028, 132084, 132031
78134, 19626, 21929, 34191, 34154, 132085, 132086, 132088, 132089, 132087, 132090
78135, 35845, 35852, 16013, 16014, 132091, 132092, 132094, 132095, 132093, 60982
** ... 109537 like lines cut

** Define element set Eall
*ELSET, ELSET=Eall
Evolumes



***********************************************************
** Element sets for materials and FEM element type (solid, shell, beam, fluid)
*ELSET,ELSET=MaterialSolidSolid
Evolumes

***********************************************************
** constraints fixed node sets
** ConstraintFixed
*NSET,NSET=ConstraintFixed
98,
99,
100,
533,
534,
535,
657,
658,
659,
660,
661,
731,
732,
733,
7286,
7287,
7288,
7289,
7290,
7291,
** ... 1341 like lines cut

** Physical constants for SI(mm) unit system with Kelvins
*PHYSICAL CONSTANTS, ABSOLUTE ZERO=0, STEFAN BOLTZMANN=5.670374419e-11

***********************************************************
** Materials
** see information about units at file end
** FreeCAD material name: CalculiX-Steel
** MaterialSolid
*MATERIAL, NAME=MaterialSolid
*ELASTIC
210000,0.3

***********************************************************
** Sections
*SOLID SECTION, ELSET=MaterialSolidSolid, MATERIAL=MaterialSolid

***********************************************************
** At least one step is needed to run an CalculiX analysis of FreeCAD
*STEP, INC=2000
*STATIC


***********************************************************
** Fixed Constraints
** ConstraintFixed
*BOUNDARY
ConstraintFixed,1
ConstraintFixed,2
ConstraintFixed,3


***********************************************************
** constraints force node loads
*CLOAD
** ConstraintForce
** node loads on shape: Pocket004:Face214
438,3,-0
439,3,-0
513,3,-0
514,3,-0
6674,3,-0
6707,3,-0
6708,3,-0
6709,3,-0
6710,3,-0
6711,3,-0
6712,3,-0
6713,3,-0
6714,3,-0
6715,3,-0
6716,3,-0
6717,3,-0
6718,3,-0
6719,3,-0
6720,3,-0
6721,3,-0
** ... 115 like lines cut

** node loads on shape: Pocket004:Face12
438,3,-0
439,3,-0
722,3,-0
724,3,-0
6725,3,-0
6726,3,-0
6727,3,-0
6728,3,-0
6729,3,-0
6730,3,-0
6731,3,-0
6732,3,-0
6733,3,-0
6734,3,-0
6735,3,-0
6736,3,-0
6737,3,-0
6738,3,-0
6739,3,-0
6740,3,-0
** ... 111 like lines cut



***********************************************************
** Outputs --> frd file
*NODE FILE
U
*EL FILE
S, E
** outputs --> dat file
** reaction forces for Constraint fixed
*NODE PRINT, NSET=ConstraintFixed, TOTALS=ONLY
RF

*OUTPUT, FREQUENCY=1
***********************************************************
*END STEP

***********************************************************
** CalculiX Input file
**   written by    --> FreeCAD 1.0.2
**   written on    --> Sat Oct 25 19:51:10 2025
**   file name     --> boom-lattice.FCStd
**   analysis name --> Analysis
**
**
***********************************************************
**  About units:
**  See ccx manual, ccx does not know about any unit.
**  Golden rule: The user must make sure that the numbers they provide have consistent units.
**  The user is the FreeCAD calculix writer module ;-)
**
**  The unit system which is used at Guido Dhondt's company: mm, N, s, K
**  Since Length and Mass are connected by Force, if Length is mm the Mass is in t to get N
**  The following units are used to write to inp file:
**
**  Length: mm (this includes the mesh geometry)
**  Mass: t
**  TimeSpan: s
**  Temperature: K
**
**  This leads to:
**  Force: N
**  Pressure: N/mm^2 == MPa (Young's Modulus has unit Pressure)
**  Density: t/mm^3
**  Gravity: mm/s^2
**  Thermal conductivity: t*mm/K/s^3 == as W/m/K == kW/mm/K
**  Specific Heat: mm^2/s^2/K = J/kg/K == kJ/t/K
**
